#======================================================================

# CRYSTAL DATA

#----------------------------------------------------------------------

data_VESTA_phase_1


_chemical_name_common                  ''
_cell_length_a                         7.08994
_cell_length_b                         4.84693
_cell_length_c                         4.98540
_cell_angle_alpha                      90
_cell_angle_beta                       90
_cell_angle_gamma                      90
_space_group_name_H-M_alt              'P b c n'
_space_group_IT_number                 60

loop_
_space_group_symop_operation_xyz
   'x, y, z'
   '-x, -y, -z'
   '-x+1/2, -y+1/2, z+1/2'
   'x+1/2, y+1/2, -z+1/2'
   '-x, y, -z+1/2'
   'x, -y, z+1/2'
   'x+1/2, -y+1/2, -z'
   '-x+1/2, y+1/2, z'

loop_
   _atom_site_label
   _atom_site_occupancy
   _atom_site_fract_x
   _atom_site_fract_y
   _atom_site_fract_z
   _atom_site_adp_type
   _atom_site_B_iso_or_equiv
   _atom_site_type_symbol
   Al0        1.0     0.109605      0.247848      0.530514     Biso  1.000000 Al
   O1         1.0     0.154002      0.392979      0.898024     Biso  1.000000 O
   O2         1.0     0.000000      0.049404      0.250000     Biso  1.000000 O
