#======================================================================

# CRYSTAL DATA

#----------------------------------------------------------------------

data_VESTA_phase_1


_chemical_name_common                  ''
_cell_length_a                         4.71100
_cell_length_b                         4.88000
_cell_length_c                         6.85100
_cell_angle_alpha                      90
_cell_angle_beta                       90
_cell_angle_gamma                      90
_space_group_name_H-M_alt              'P b n m'
_space_group_IT_number                 62

loop_
_space_group_symop_operation_xyz
   'x, y, z'
   '-x, -y, -z'
   'x+1/2, -y+1/2, -z'
   '-x+1/2, y+1/2, z'
   '-x, -y, z+1/2'
   'x, y, -z+1/2'
   '-x+1/2, y+1/2, -z+1/2'
   'x+1/2, -y+1/2, z+1/2'

loop_
   _atom_site_label
   _atom_site_occupancy
   _atom_site_fract_x
   _atom_site_fract_y
   _atom_site_fract_z
   _atom_site_adp_type
   _atom_site_B_iso_or_equiv
   _atom_site_type_symbol
   Mg         1.0     0.517400      0.561400      0.250000     Biso  0.457686 Mg
   Si         1.0     0.500000      0.000000      0.500000     Biso  0.250030 Si
   O1         1.0     0.112800      0.460800      0.250000     Biso  0.324249 O
   O2         1.0     0.192800      0.199500      0.552800     Biso  0.344778 O

loop_
   _atom_site_aniso_label
   _atom_site_aniso_U_11
   _atom_site_aniso_U_22
   _atom_site_aniso_U_33
   _atom_site_aniso_U_12
   _atom_site_aniso_U_13
   _atom_site_aniso_U_23
   Mg	 0.00555  0.00565  0.00619  0.00052  0.00000  0.00000
   Si	 0.00342  0.00367  0.00241 -0.00005  0.00003 -0.00016
   O1	 0.00434  0.00581  0.00217  0.00013  0.00000  0.00000
   O2	 0.00430  0.00449  0.00431  0.00083  0.00048  0.00083
